LTspice 26.0.1 for Windows
Circuit: Z:\home\lucifer\Electronica\P23 Multiplicator de tensiune Cockcroft-Walton (9 etaje)\Multiplicator de tensiune.net
Start Time: Sun May 17 23:46:47 2026
solver = Normal
Maximum thread count: 12
tnom = 27
temp = 27
method = trap
Direct Newton iteration succeeded in finding operating point.
Total elapsed time: 0.893 seconds.

Files loaded:
Z:\home\lucifer\Electronica\P23 Multiplicator de tensiune Cockcroft-Walton (9 etaje)\Multiplicator de tensiune.net
C:\users\lucifer\AppData\Local\LTspice\lib\cmp\standard.dio
C:\users\lucifer\AppData\Local\LTspice\lib\sub\NE555.sub

