LTspice 26.0.1 for Windows
Circuit: Z:\home\lucifer\Electronica\P17 Convertor Binar - Cod Gray\Draft2.net
Start Time: Sun May  3 13:26:37 2026
solver = Normal
Maximum thread count: 12
tnom = 27
temp = 27
method = trap
Direct Newton iteration succeeded in finding operating point.
Total elapsed time: 0.133 seconds.

Files loaded:
Z:\home\lucifer\Electronica\P17 Convertor Binar - Cod Gray\Draft2.net
C:\users\lucifer\AppData\Local\LTspice\lib\cmp\standard.dio
C:\users\lucifer\AppData\Local\LTspice\lib\sub\NE555.sub

