LTspice 26.0.1 for Windows
Circuit: Z:\home\lucifer\Electronica\P17 Convertor Binar - Cod Gray\Draft4.net
Start Time: Sun May  3 14:36:15 2026
solver = Normal
Maximum thread count: 12
tnom = 27
temp = 27
method = trap
Direct Newton iteration succeeded in finding operating point.
Total elapsed time: 0.041 seconds.

Files loaded:
Z:\home\lucifer\Electronica\P17 Convertor Binar - Cod Gray\Draft4.net
C:\users\lucifer\AppData\Local\LTspice\lib\sub\NE555.sub

