LTspice 26.0.1 for Windows
Circuit: Z:\home\lucifer\Electronica\P05 NE555 Monostabil 5s\Draft1.net
Start Time: Sun May 17 15:46:12 2026
solver = Normal
Maximum thread count: 12
tnom = 27
temp = 27
method = trap
Direct Newton iteration succeeded in finding operating point.
Total elapsed time: 1.357 seconds.

Files loaded:
Z:\home\lucifer\Electronica\P05 NE555 Monostabil 5s\Draft1.net
C:\users\lucifer\AppData\Local\LTspice\lib\cmp\standard.dio
C:\users\lucifer\AppData\Local\LTspice\lib\sub\NE555.sub

