LTspice 26.0.1 for Windows
Circuit: Z:\home\lucifer\Electronica\P05 NE555 Monostabil 5s\Draft1.net
Start Time: Wed May  6 21:50:56 2026
solver = Normal
Maximum thread count: 12
tnom = 27
temp = 27
method = trap
Direct Newton iteration succeeded in finding operating point.
Total elapsed time: 0.043 seconds.

Files loaded:
Z:\home\lucifer\Electronica\P05 NE555 Monostabil 5s\Draft1.net
C:\users\lucifer\AppData\Local\LTspice\lib\sub\LT1013.sub

